/*--------------------------------*- C++ -*----------------------------------*\
  =========                 |
  \\      /  F ield         | OpenFOAM: The Open Source CFD Toolbox
   \\    /   O peration     | Website:  https://openfoam.org
    \\  /    A nd           | Version:  9
     \\/     M anipulation  |
\*---------------------------------------------------------------------------*/
FoamFile
{
    format      binary;
    class       polyBoundaryMesh;
    location    "constant/polyMesh";
    object      boundary;
}
// * * * * * * * * * * * * * * * * * * * * * * * * * * * * * * * * * * * * * //

6
(
    inlet
    {
        type            patch;
        nFaces          749;
        startFace       154118;
    }
    outlet
    {
        type            patch;
        nFaces          749;
        startFace       154867;
    }
    outerCylinder
    {
        type            wall;
        inGroups        List<word> 1(wall);
        nFaces          4790;
        startFace       155616;
    }
    propellerStem
    {
        type            wall;
        inGroups        List<word> 1(wall);
        nFaces          2718;
        startFace       160406;
    }
    AMI1
    {
        type            cyclicAMI;
        inGroups        List<word> 
2
(
cyclicAMI
rotating
)
;
        nFaces          3536;
        startFace       163124;
        matchTolerance  0.0001;
        neighbourPatch  AMI2;
        transformType   none;
        method          faceAreaWeightAMI;
    }
    AMI2
    {
        type            cyclicAMI;
        inGroups        List<word> 
2
(
cyclicAMI
rotating
)
;
        nFaces          3536;
        startFace       166660;
        matchTolerance  0.0001;
        neighbourPatch  AMI1;
        transformType   none;
        method          faceAreaWeightAMI;
    }
)

// ************************************************************************* //
